  
       XFOIL         Version 6.99
  
 Calculated polar for: profile                                         
  
 1 1 Reynolds number fixed          Mach number fixed         
  
 xtrf =   1.000 (top)        1.000 (bottom)  
 Mach =   0.040     Re =     0.434 e 6     Ncrit =   9.000
  
   alpha    CL        CD       CDp       CM     Top_Xtr  Bot_Xtr
  ------ -------- --------- --------- -------- -------- --------
   0.000  -0.4000   0.01273   0.00736   0.0735   0.9292   0.6159
